!-Generator IDFEditor 1.50
!-Option SortedOrder

!-NOTE: All comments with '!-' are ignored by the IDFEditor and are generated automatically.
!-      Use '!' comments if they need to be retained when using the IDFEditor.


!-   ===========  ALL OBJECTS IN CLASS: VERSION ===========

! The 90.1 Prototype Building Models were developed by Pacific Northwest National Laboratory (PNNL),
! under contract with the U.S. Department of Energy (DOE).  These building models were derived from
! DOE’s Commercial Reference Building Models with modifications based on input from the ASHRAE Standard 90.1 committee,
! the Advanced Energy Design Guide series, and building industry experts.
! The prototypes models were developed to quantify energy saving impacts from
! newly published editions of ASHRAE Standard 90.1.  The basic building descriptions can be found in the Scorecards
! posted at this website.  Detailed descriptions of the prototype model development and addenda modeling
! strategies can be found in the following  reports:
! "Achieving 30% Goal: Energy and Cost Saving Analysis of ASHRAE/IES Standard 90.1-2010."
! "Enhancements to ASHRAE Standard 90.1 Prototype Building Models"
! "Energy Savings Analysis: ANSI/ASHRAE/IES Standard 90.1-2016"
! "ANSI/ASHRAE/IES Standard 90.1-2013 Determination of Energy Savings: Quantitative Analysis"
!
! BEGIN ECONOMIZER MAP
! Economizer Name, DX COIL Name
! VAV_POD_1_OA_Controller, VAV_POD_1_CoolC DXCoil
! VAV_POD_2_OA_Controller, VAV_POD_2_CoolC DXCoil
! VAV_POD_3_OA_Controller, VAV_POD_3_CoolC DXCoil
! VAV_OTHER_OA_Controller, VAV_OTHER_CoolC DXCoil
! PSZ-AC_2:5_OA_Controller, PSZ-AC_2:5_Unitary_Package_CoolCoil
! PSZ-AC_1:6_OA_Controller, PSZ-AC_1:6_Unitary_Package_CoolCoil
! PSZ-AC_2:7_OA_Controller, PSZ-AC_2:7_Unitary_Package_CoolCoil
! END ECONOMIZER MAP
!
!
! BEGIN EMS PROGRAM MAP
! EMS PROGRAM, DX COIL Name
! PSZ2_5, PSZ-AC_2:5_UNITARY_PACKAGE_COOLCOIL
! PSZ1_6, PSZ-AC_1:6_UNITARY_PACKAGE_COOLCOIL
! PSZ2_7, PSZ-AC_2:7_UNITARY_PACKAGE_COOLCOIL
! END EMS PROGRAM MAP
!
!
! WeatherFile:  USA_CO_Denver-Aurora-Buckley.AFB.724695_TMY3.epw
! GPARM parameters as input:
!    Case = DOE.determination2016_SchoolPrimary_STD2016_Boise
!    weatherfile = USA_CO_Denver-Aurora-Buckley.AFB.724695_TMY3.epw
!    ground_tempt = Zone5B_nonres_R15_2ftV_SchoolPrimary_Denver_STD2016.gtp
!    avg_oa_tempt_ip = 49.91
!    maxdiff_oa_tempt_ip = 42.66
!    ext_wall_type = SteelFramedWall
!    nonres_ext_wall_ufactor = 0.312304465
!    roof_type = LightweightRoof
!    nonres_roof_ufactor = 0.181704416
!    nonres_window = Window_U_0.40_SHGC_0.38
!    nonres_skylight = Window_U_0.50_SHGC_0.40
!    daylighting_control = yes
!    sidelighting_control = yes_AY
!    roof_emissivity = 0.9
!    roof_solar_absorp = 0.77
!    LPD_classroom = 9.902797584
!    LPD_corridor = 7.104180875
!    LPD_lobby = 10.76391042
!    LPD_computer_room = 9.902797584
!    LPD_mechanical = 10.2257149
!    LPD_bath = 9.149323854
!    LPD_office = 10.01043669
!    LPD_gym = 5.381955209
!    LPD_kitchen = 11.40974504
!    LPD_cafeteria = 6.781263563
!    LPD_library = 8.395850125
!    exterior_lights_watts =
!    exterior_lights_watts_a = 150.48
!    exterior_lights_watts_b = 1645.9
!    economizer = DifferentialDryBulb
!    skip_economizer_control = No
!    cc_sa_humidity = 0.007
!    damper_sch = MinOA_MotorizedDamper_Sched
!    OA_classroom = 0.001879482
!    OA_corridor = 0.000304781
!    OA_lobby = 0.000304781
!    OA_computer_room = 0.001879482
!    OA_mechanical = 0
!    OA_bath = 0
!    OA_office = 0.000431773
!    OA_gym = 0.001523905
!    OA_kitchen = 0.001178183
!    OA_cafeteria = 0.004724104
!    OA_library = 0.000863546
!    PSZ_AC_2_7_DCV = Yes
!    OA_cafeteria_per_area = 0.000914343
!    OA_cafeteria_per_person = 0.003539405
!    vav_pod_1_dcv = Yes
!    vav_pod_2_dcv = Yes
!    vav_pod_3_dcv = Yes
!    oa_classroom_per_person = 0.00472
!    oa_classroom_per_area = 0.00060972
!    Gym_SZ_VAV = No
!    Kitchen_SZ_VAV = No
!    Cafeteria_SZ_VAV = No
!    avg_oa_tempt = 9.95
!    maxdiff_oa_tempt = 23.7
!    infil = 0.00056896
!    SAT_reset_switch = Yes
!    SAT_reset_T = 15.6
!    door_infil = 3.031315581
!    frac_ofpk = 0.131
!    VAV_Pod_1_ERV = No
!    VAV_Pod_2_ERV = No
!    VAV_Pod_3_ERV = No
!    PSZ_AC_2_5_ERV = No
!    PSZ_AC_2_7_ERV = No
!    economizer_lockout = NoLockout
!    economizer_lockout_vav = NoLockout
!    Transfer_Air = all_exhaust
!    add_ck_vav_other = Yes
!    add_ck_vav_pod_1 = Yes
!    add_ck_vav_pod_2 = Yes
!    add_ck_vav_pod_3 = Yes
!    bath_zn_1_flr_1_mdp = 0.2
!    computer_class_zn_1_flr_1_mdp = 1
!    library_media_center_zn_1_flr_1_mdp = 0.579946868633279
!    lobby_zn_1_flr_1_mdp = 0.203566762509908
!    main_corridor_zn_1_flr_1_mdp = 0.336322320654332
!    mech_zn_1_flr_1_mdp = 0.2
!    offices_zn_1_flr_1_mdp = 0.276039587842588
!    corner_class_1_pod_1_zn_1_flr_1_mdp = 0.5
!    corner_class_2_pod_1_zn_1_flr_1_mdp = 0.5
!    corridor_pod_1_zn_1_flr_1_mdp = 0.2
!    Multi_class_1_pod_1_zn_1_flr_1_mdp = 0.651514490857824
!    Multi_class_2_pod_1_zn_1_flr_1_mdp = 0.858610914245216
!    corner_class_1_pod_2_zn_1_flr_1_mdp = 0.5
!    corner_class_2_pod_2_zn_1_flr_1_mdp = 0.5
!    corridor_pod_2_zn_1_flr_1_mdp = 0.2
!    Multi_class_1_pod_2_zn_1_flr_1_mdp = 0.675337099811676
!    Multi_class_2_pod_2_zn_1_flr_1_mdp = 0.85688752102768
!    corner_class_1_pod_3_zn_1_flr_1_mdp = 0.5
!    corner_class_2_pod_3_zn_1_flr_1_mdp = 0.5
!    corridor_pod_3_zn_1_flr_1_mdp = 0.2
!    Multi_class_1_pod_3_zn_1_flr_1_mdp = 0.627118644067797
!    Multi_class_2_pod_3_zn_1_flr_1_mdp = 0.858825577347105
!    vav_other_oaf = 1.76327933333333
!    vav_pod_1_oaf = 3.46166
!    vav_pod_2_oaf = 3.41484
!    vav_pod_3_oaf = 3.16905
!    frame_width = 0
!    frame_cond = 0
!    frame = Skylight_Frame
!    BLDG_EQUIP_SCH = BLDG_EQUIP_SCH_ADV
!    addendum_cd = 2016AS
!    pv_generator = no
!    pv_surface_area = 0
!    STD189_overhang = no
!    swh_et = 0.80512672
!    swh_ua = 9.643286505
!    ext_lgt_sch = Exterior_Lgt_ALWAYS_ON
!    VAV_OTHER_ERV = No
!    VAV_Pod_1_ERV_power = 2533.74105
!    VAV_Pod_2_ERV_power = 2500.1477
!    VAV_Pod_3_ERV_power = 2323.793375
!    PSZ_AC_2_5_ERV_power = 440.341525
!    PSZ_AC_2_7_ERV_power = 1117.704575
!    VAV_OTHER_ERV_power = 1315.15292166666
!    heating_damper_act = REVERSE
!    LTG_SCH_SET = LTG_SET_STD2013
!    transformer_size = 112500
!    transformer_eff = 0.987
!    freezer_power = 915
!    refrigerator_power = 570
!    HtgSetP_Sch = HTGSETP_SCH_NO_OPTIMUM
!    ClgSetP_Sch = CLGSETP_SCH_NO_OPTIMUM
!    wwr = 0.35
!    swh_et_booster = 1
!    swh_ua_booster = 1.053159296
!    pipe_heat_loss = 970.33
!    evap_fan_power_case1 = 19.51428571
!    evap_fan_power_case2 = 15.71428571
!    walkin_lighting_sch = walkin_occ_lght_sch
!    fan_total_eff = 0.385
!    kitchen_exh_fan_power = 762
!    skip_EMSprogram = no
!    HtgSetP_Sch_VAV_POD_1 = HTGSETP_SCH_YES_OPTIMUM
!    ClgSetP_Sch_VAV_POD_1 = CLGSETP_SCH_YES_OPTIMUM
!    HtgSetP_Sch_VAV_POD_2 = HTGSETP_SCH_YES_OPTIMUM
!    ClgSetP_Sch_VAV_POD_2 = CLGSETP_SCH_YES_OPTIMUM
!    HtgSetP_Sch_VAV_POD_3 = HTGSETP_SCH_YES_OPTIMUM
!    ClgSetP_Sch_VAV_POD_3 = CLGSETP_SCH_YES_OPTIMUM
!    HtgSetP_Sch_VAV_OTHER = HTGSETP_SCH_YES_OPTIMUM
!    ClgSetP_Sch_VAV_OTHER = CLGSETP_SCH_YES_OPTIMUM
!    OA_BASED_OPTIMUM_START_EMS = yes
!    OPTIMUM_START_SF_DEPENDENT_EMS = no
!    Wfile_TMY3 = USA_CO_Denver-Aurora-Buckley.AFB.724695_TMY3.epw
!    loadProfile = No
!    BoilerAM = Yes
!    receptacle_ctrl_occ_reduction_frac = 0.930618629
!    receptacle_ctrl_unocc_reduction_frac = 0.779685327
!    SHW_Pump_Head = 29891
!    CodeName = ASHRAE90.1_STD2016
!    CZ_City_Old = Boise
!    CZ_Label = 5B
!    exterior_lights_watts_c = 584.3
!    Addendum_AH = Yes
!    LPD_Ctrl = 0.02
!    con_swingdoor_r = 0.475963827
!    HOTW_PumpCurve_flag = pump_ride_on_curve
! Start SimMetaData
! CodeStandard=ASHRAE 90.1-2004
! RoofConstruction=Insulation Entirely Above Deck
! ExtWallConstruction=Steel-Framed
! End SimMetaData
Version,
    9.1;                     !- Version Identifier


!-   ===========  ALL OBJECTS IN CLASS: SIMULATIONCONTROL ===========

SimulationControl,
    No,                      !- Do Zone Sizing Calculation
    No,                      !- Do System Sizing Calculation
    No,                      !- Do Plant Sizing Calculation
    Yes,                     !- Run Simulation for Sizing Periods
    YES;                     !- Run Simulation for Weather File Run Periods


!-   ===========  ALL OBJECTS IN CLASS: BUILDING ===========

Building,
    Primary School,          !- Name
    0.0000,                  !- North Axis {deg}
    City,                    !- Terrain
    0.5,                     !- Loads Convergence Tolerance Value
    0.5,                     !- Temperature Convergence Tolerance Value {deltaC}
    FullInteriorAndExterior, !- Solar Distribution
    1,                       !- Maximum Number of Warmup Days
    1;                       !- Minimum Number of Warmup Days


!-   ===========  ALL OBJECTS IN CLASS: SHADOWCALCULATION ===========

ShadowCalculation,
    AverageOverDaysInFrequency,  !- Calculation Method
    30,                      !- Calculation Frequency
    15000;                   !- Maximum Figures in Shadow Overlap Calculations


!-   ===========  ALL OBJECTS IN CLASS: SURFACECONVECTIONALGORITHM:INSIDE ===========

SurfaceConvectionAlgorithm:Inside,
    TARP;                    !- Algorithm


!-   ===========  ALL OBJECTS IN CLASS: SURFACECONVECTIONALGORITHM:OUTSIDE ===========

SurfaceConvectionAlgorithm:Outside,
    TARP;                    !- Algorithm


!-   ===========  ALL OBJECTS IN CLASS: HEATBALANCEALGORITHM ===========

HeatBalanceAlgorithm,
    ConductionTransferFunction,  !- Algorithm
    200.0000;                !- Surface Temperature Upper Limit {C}


!-   ===========  ALL OBJECTS IN CLASS: TIMESTEP ===========

Timestep,
    60;                      !- Number of Timesteps per Hour


!-   ===========  ALL OBJECTS IN CLASS: CONVERGENCELIMITS ===========

ConvergenceLimits,
    1,                       !- Minimum System Timestep {minutes}
    150;                     !- Maximum HVAC Iterations


!-   ===========  ALL OBJECTS IN CLASS: SITE:LOCATION ===========

! Site:Location and design-day objects created by:
! /projects/bigsim/bin/ddy2idf /projects/bigsim/weather/EnergyPlus/tmy3.new/all/USA_CO_Denver-Aurora-Buckley.AFB.724695_TMY3.ddy
!
Site:Location,
    Denver-Aurora-Buckley.AFB_CO_USA,  !- Name
    39.72,                   !- Latitude {deg}
    -104.75,                 !- Longitude {deg}
    -7.00,                   !- Time Zone {hr}
    1726.00;                 !- Elevation {m}


!-   ===========  ALL OBJECTS IN CLASS: SIZINGPERIOD:DESIGNDAY ===========

SizingPeriod:DesignDay,
    Denver-Aurora-Buckley.AFB_CO_USA Ann Htg 99.6% Condns DB,  !- Name
    12,                      !- Month
    21,                      !- Day of Month
    WinterDesignDay,         !- Day Type
    -17.9,                   !- Maximum Dry-Bulb Temperature {C}
    0.0,                     !- Daily Dry-Bulb Temperature Range {deltaC}
    DefaultMultipliers,      !- Dry-Bulb Temperature Range Modifier Type
    ,                        !- Dry-Bulb Temperature Range Modifier Day Schedule Name
    Wetbulb,                 !- Humidity Condition Type
    -17.9,                   !- Wetbulb or DewPoint at Maximum Dry-Bulb {C}
    ,                        !- Humidity Condition Day Schedule Name
    ,                        !- Humidity Ratio at Maximum Dry-Bulb {kgWater/kgDryAir}
    ,                        !- Enthalpy at Maximum Dry-Bulb {J/kg}
    ,                        !- Daily Wet-Bulb Temperature Range {deltaC}
    82237.,                  !- Barometric Pressure {Pa}
    2.5,                     !- Wind Speed {m/s}
    180,                     !- Wind Direction {deg}
    No,                      !- Rain Indicator
    No,                      !- Snow Indicator
    No,                      !- Daylight Saving Time Indicator
    ASHRAEClearSky,          !- Solar Model Indicator
    ,                        !- Beam Solar Day Schedule Name
    ,                        !- Diffuse Solar Day Schedule Name
    ,                        !- ASHRAE Clear Sky Optical Depth for Beam Irradiance (taub) {dimensionless}
    ,                        !- ASHRAE Clear Sky Optical Depth for Diffuse Irradiance (taud) {dimensionless}
    0.00;                    !- Sky Clearness

SizingPeriod:DesignDay,
    Denver-Aurora-Buckley.AFB_CO_USA Ann Clg .4% Condns DB=>MWB,  !- Name
    7,                       !- Month
    21,                      !- Day of Month
    SummerDesignDay,         !- Day Type
    33.9,                    !- Maximum Dry-Bulb Temperature {C}
    14.8,                    !- Daily Dry-Bulb Temperature Range {deltaC}
    DefaultMultipliers,      !- Dry-Bulb Temperature Range Modifier Type
    ,                        !- Dry-Bulb Temperature Range Modifier Day Schedule Name
    Wetbulb,                 !- Humidity Condition Type
    15,                      !- Wetbulb or DewPoint at Maximum Dry-Bulb {C}
    ,                        !- Humidity Condition Day Schedule Name
    ,                        !- Humidity Ratio at Maximum Dry-Bulb {kgWater/kgDryAir}
    ,                        !- Enthalpy at Maximum Dry-Bulb {J/kg}
    ,                        !- Daily Wet-Bulb Temperature Range {deltaC}
    82237.,                  !- Barometric Pressure {Pa}
    3.6,                     !- Wind Speed {m/s}
    30,                      !- Wind Direction {deg}
    No,                      !- Rain Indicator
    No,                      !- Snow Indicator
    No,                      !- Daylight Saving Time Indicator
    ASHRAETau,               !- Solar Model Indicator
    ,                        !- Beam Solar Day Schedule Name
    ,                        !- Diffuse Solar Day Schedule Name
    0.423,                   !- ASHRAE Clear Sky Optical Depth for Beam Irradiance (taub) {dimensionless}
    2.020;                   !- ASHRAE Clear Sky Optical Depth for Diffuse Irradiance (taud) {dimensionless}


!-   ===========  ALL OBJECTS IN CLASS: RUNPERIOD ===========

RunPeriod,
    ,                        !- Name
    4,                       !- Begin Month
    1,                       !- Begin Day of Month
    ,                        !- Begin Year
    4,                       !- End Month
    3,                       !- End Day of Month
    ,                        !- End Year
    Tuesday,                 !- Day of Week for Start Day
    No,                      !- Use Weather File Holidays and Special Days
    No,                      !- Use Weather File Daylight Saving Period
    No,                      !- Apply Weekend Holiday Rule
    Yes,                     !- Use Weather File Rain Indicators
    Yes;                     !- Use Weather File Snow Indicators


!-   ===========  ALL OBJECTS IN CLASS: RUNPERIODCONTROL:SPECIALDAYS ===========

! US National Holidays
RunPeriodControl:SpecialDays,
    New Years Day,           !- Name
    January 1,               !- Start Date
    1,                       !- Duration {days}
    Holiday;                 !- Special Day Type

RunPeriodControl:SpecialDays,
    Veterans Day,            !- Name
    November 11,             !- Start Date
    1,                       !- Duration {days}
    Holiday;                 !- Special Day Type

RunPeriodControl:SpecialDays,
    Christmas,               !- Name
    December 25,             !- Start Date
    1,                       !- Duration {days}
    Holiday;                 !- Special Day Type

RunPeriodControl:SpecialDays,
    Independence Day,        !- Name
    July 4,                  !- Start Date
    1,                       !- Duration {days}
    Holiday;                 !- Special Day Type

RunPeriodControl:SpecialDays,
    MLK Day,                 !- Name
    3rd Monday in January,   !- Start Date
    1,                       !- Duration {days}
    Holiday;                 !- Special Day Type

RunPeriodControl:SpecialDays,
    Presidents Day,          !- Name
    3rd Monday in February,  !- Start Date
    1,                       !- Duration {days}
    Holiday;                 !- Special Day Type

RunPeriodControl:SpecialDays,
    Memorial Day,            !- Name
    Last Monday in May,      !- Start Date
    1,                       !- Duration {days}
    Holiday;                 !- Special Day Type

RunPeriodControl:SpecialDays,
    Labor Day,               !- Name
    1st Monday in September, !- Start Date
    1,                       !- Duration {days}
    Holiday;                 !- Special Day Type

RunPeriodControl:SpecialDays,
    Columbus Day,            !- Name
    2nd Monday in October,   !- Start Date
    1,                       !- Duration {days}
    Holiday;                 !- Special Day Type

RunPeriodControl:SpecialDays,
    Thanksgiving,            !- Name
    4th Thursday in November,!- Start Date
    1,                       !- Duration {days}
    Holiday;                 !- Special Day Type


!-   ===========  ALL OBJECTS IN CLASS: RUNPERIODCONTROL:DAYLIGHTSAVINGTIME ===========

! Daylight Saving Period in US
RunPeriodControl:DaylightSavingTime,
    2nd Sunday in March,     !- Start Date
    1st Sunday in November;  !- End Date


!-   ===========  ALL OBJECTS IN CLASS: SITE:GROUNDTEMPERATURE:BUILDINGSURFACE ===========

!
! Ground temperature object produced by /projects/bigsim/bin/gt2idf /projects/bigsim/comstd/_p.gtp/_p.gtp_copy_from_local/slab/output/Zone5B_nonres_R15_2ftV_SchoolPrimary_Denver_STD2016.gtp
Site:GroundTemperature:BuildingSurface,
    20.68,                   !- January Ground Temperature {C}
    20.64,                   !- February Ground Temperature {C}
    20.65,                   !- March Ground Temperature {C}
    20.65,                   !- April Ground Temperature {C}
    20.70,                   !- May Ground Temperature {C}
    22.97,                   !- June Ground Temperature {C}
    23.33,                   !- July Ground Temperature {C}
    23.41,                   !- August Ground Temperature {C}
    23.45,                   !- September Ground Temperature {C}
    21.17,                   !- October Ground Temperature {C}
    20.85,                   !- November Ground Temperature {C}
    20.74;                   !- December Ground Temperature {C}


!-   ===========  ALL OBJECTS IN CLASS: SITE:GROUNDTEMPERATURE:UNDISTURBED:KUSUDAACHENBACH ===========

Site:GroundTemperature:Undisturbed:KusudaAchenbach,
    Vertical Ground Heat Exchanger Ground Temps,  !- Name
    0.692626E+00,            !- Soil Thermal Conductivity {W/m-K}
    920,                     !- Soil Density {kg/m3}
    2551.09,                 !- Soil Specific Heat {J/kg-K}
    16,                      !- Average Soil Surface Temperature {C}
    3.2,                     !- Average Amplitude of Surface Temperature {deltaC}
    8;                       !- Phase Shift of Minimum Surface Temperature {days}


!-   ===========  ALL OBJECTS IN CLASS: SITE:WATERMAINSTEMPERATURE ===========

Site:WaterMainsTemperature,
    CORRELATION,             !- Calculation Method
    ,                        !- Temperature Schedule Name
    9.95,                    !- Annual Average Outdoor Air Temperature {C}
    23.7;                    !- Maximum Difference In Monthly Average Outdoor Air Temperatures {deltaC}


!-   ===========  ALL OBJECTS IN CLASS: SCHEDULETYPELIMITS ===========

ScheduleTypeLimits,
    Any Number;              !- Name

ScheduleTypeLimits,
    Fraction,                !- Name
    0.0,                     !- Lower Limit Value
    1.0,                     !- Upper Limit Value
    CONTINUOUS;              !- Numeric Type

ScheduleTypeLimits,
    Temperature,             !- Name
    -60,                     !- Lower Limit Value
    200,                     !- Upper Limit Value
    CONTINUOUS;              !- Numeric Type

ScheduleTypeLimits,
    On/Off,                  !- Name
    0,                       !- Lower Limit Value
    1,                       !- Upper Limit Value
    DISCRETE;                !- Numeric Type

ScheduleTypeLimits,
    Control Type,            !- Name
    0,                       !- Lower Limit Value
    4,                       !- Upper Limit Value
    DISCRETE;                !- Numeric Type

ScheduleTypeLimits,
    Humidity,                !- Name
    10,                      !- Lower Limit Value
    90,                      !- Upper Limit Value
    CONTINUOUS;              !- Numeric Type

ScheduleTypeLimits,
    Number;                  !- Name


!-   ===========  ALL OBJECTS IN CLASS: SCHEDULE:COMPACT ===========

! lighting schedules for ASHRAE90.1-STD2010
! lighting schedules for IECC2006 / IECC2009
! lighting schedules for IECC2012
! lighting schedules for IECC2015
! lighting schedules for ASHRAE1891_2009
! lighting schedules for ASHRAE1891_2011
! lighting schedules for ASHRAE90.1-2013
Schedule:Compact,
    BLDG_LIGHT_BATH_SCH,     !- Name
    Fraction,                !- Schedule Type Limits Name
    Through: 6/30,           !- Field 1
    For: Weekdays,           !- Field 2
    Until: 7:00,             !- Field 3
    0.1773,                  !- Field 4
    Until: 8:00,             !- Field 5
    0.9,                     !- Field 6
    Until: 21:00,            !- Field 7
    0.594,                   !- Field 8
    Until: 24:00,            !- Field 9
    0.1773,                  !- Field 10
    For: SummerDesignDay,    !- Field 11
    Until: 24:00,            !- Field 12
    1,                       !- Field 13
    For: WinterDesignDay,    !- Field 14
    Until: 24:00,            !- Field 15
    0,                       !- Field 16
    For: WeekEnds Holidays AllOtherDays,  !- Field 17
    Until: 24:00,            !- Field 18
    0.1773,                  !- Field 19
    Through: 9/1,            !- Field 20
    For: Weekdays,           !- Field 21
    Until: 8:00,             !- Field 22
    0.1773,                  !- Field 23
    Until: 20:00,            !- Field 24
    0.33,                    !- Field 25
    Until: 21:00,            !- Field 26
    0.117018,                !- Field 27
    Until: 24:00,            !- Field 28
    0.1773,                  !- Field 29
    For: SummerDesignDay,    !- Field 30
    Until: 24:00,            !- Field 31
    1,                       !- Field 32
    For: WinterDesignDay,    !- Field 33
    Until: 24:00,            !- Field 34
    0,                       !- Field 35
    For: WeekEnds Holidays AllOtherDays,  !- Field 36
    Until: 24:00,            !- Field 37
    0.1773,                  !- Field 38
    Through: 12/31,          !- Field 39
    For: Weekdays,           !- Field 40
    Until: 7:00,             !- Field 41
    0.1773,                  !- Field 42
    Until: 8:00,             !- Field 43
    0.9,                     !- Field 44
    Until: 21:00,            !- Field 45
    0.594,                   !- Field 46
    Until: 24:00,            !- Field 47
    0.1773,                  !- Field 48
    For: SummerDesignDay,    !- Field 49
    Until: 24:00,            !- Field 50
    1,                       !- Field 51
    For: WinterDesignDay,    !- Field 52
    Until: 24:00,            !- Field 53
    0,                       !- Field 54
    For: WeekEnds Holidays AllOtherDays,  !- Field 55
    Until: 24:00,            !- Field 56
    0.1773;                  !- Field 57

Schedule:Compact,
    BLDG_LIGHT_CLASSROOM_SCH,!- Name
    Fraction,                !- Schedule Type Limits Name
    Through: 6/30,           !- Field 1
    For: Weekdays,           !- Field 2
    Until: 7:00,             !- Field 3
    0.1773,                  !- Field 4
    Until: 8:00,             !- Field 5
    0.9,                     !- Field 6
    Until: 21:00,            !- Field 7
    0.5982912,               !- Field 8
    Until: 24:00,            !- Field 9
    0.1773,                  !- Field 10
    For: SummerDesignDay,    !- Field 11
    Until: 24:00,            !- Field 12
    1,                       !- Field 13
    For: WinterDesignDay,    !- Field 14
    Until: 24:00,            !- Field 15
    0,                       !- Field 16
    For: WeekEnds Holidays AllOtherDays,  !- Field 17
    Until: 24:00,            !- Field 18
    0.1773,                  !- Field 19
    Through: 9/1,            !- Field 20
    For: Weekdays,           !- Field 21
    Until: 8:00,             !- Field 22
    0.1773,                  !- Field 23
    Until: 20:00,            !- Field 24
    0.332384,                !- Field 25
    Until: 21:00,            !- Field 26
    0.1178633664,            !- Field 27
    Until: 24:00,            !- Field 28
    0.1773,                  !- Field 29
    For: SummerDesignDay,    !- Field 30
    Until: 24:00,            !- Field 31
    1,                       !- Field 32
    For: WinterDesignDay,    !- Field 33
    Until: 24:00,            !- Field 34
    0,                       !- Field 35
    For: WeekEnds Holidays AllOtherDays,  !- Field 36
    Until: 24:00,            !- Field 37
    0.1773,                  !- Field 38
    Through: 12/31,          !- Field 39
    For: Weekdays,           !- Field 40
    Until: 7:00,             !- Field 41
    0.1773,                  !- Field 42
    Until: 8:00,             !- Field 43
    0.9,                     !- Field 44
    Until: 21:00,            !- Field 45
    0.5982912,               !- Field 46
    Until: 24:00,            !- Field 47
    0.1773,                  !- Field 48
    For: SummerDesignDay,    !- Field 49
    Until: 24:00,            !- Field 50
    1,                       !- Field 51
    For: WinterDesignDay,    !- Field 52
    Until: 24:00,            !- Field 53
    0,                       !- Field 54
    For: WeekEnds Holidays AllOtherDays,  !- Field 55
    Until: 24:00,            !- Field 56
    0.1773;                  !- Field 57

Schedule:Compact,
    BLDG_LIGHT_CORRIDOR_SCH, !- Name
    Fraction,                !- Schedule Type Limits Name
    Through: 6/30,           !- Field 1
    For: Weekdays,           !- Field 2
    Until: 7:00,             !- Field 3
    0.1773,                  !- Field 4
    Until: 8:00,             !- Field 5
    0.9,                     !- Field 6
    Until: 21:00,            !- Field 7
    0.560781,                !- Field 8
    Until: 24:00,            !- Field 9
    0.1773,                  !- Field 10
    For: SummerDesignDay,    !- Field 11
    Until: 24:00,            !- Field 12
    1,                       !- Field 13
    For: WinterDesignDay,    !- Field 14
    Until: 24:00,            !- Field 15
    0,                       !- Field 16
    For: WeekEnds Holidays AllOtherDays,  !- Field 17
    Until: 24:00,            !- Field 18
    0.1773,                  !- Field 19
    Through: 9/1,            !- Field 20
    For: Weekdays,           !- Field 21
    Until: 8:00,             !- Field 22
    0.1773,                  !- Field 23
    Until: 20:00,            !- Field 24
    0.311545,                !- Field 25
    Until: 21:00,            !- Field 26
    0.110473857,             !- Field 27
    Until: 24:00,            !- Field 28
    0.1773,                  !- Field 29
    For: SummerDesignDay,    !- Field 30
    Until: 24:00,            !- Field 31
    1,                       !- Field 32
    For: WinterDesignDay,    !- Field 33
    Until: 24:00,            !- Field 34
    0,                       !- Field 35
    For: WeekEnds Holidays AllOtherDays,  !- Field 36
    Until: 24:00,            !- Field 37
    0.1773,                  !- Field 38
    Through: 12/31,          !- Field 39
    For: Weekdays,           !- Field 40
    Until: 7:00,             !- Field 41
    0.1773,                  !- Field 42
    Until: 8:00,             !- Field 43
    0.9,                     !- Field 44
    Until: 21:00,            !- Field 45
    0.560781,                !- Field 46
    Until: 24:00,            !- Field 47
    0.1773,                  !- Field 48
    For: SummerDesignDay,    !- Field 49
    Until: 24:00,            !- Field 50
    1,                       !- Field 51
    For: WinterDesignDay,    !- Field 52
    Until: 24:00,            !- Field 53
    0,                       !- Field 54
    For: WeekEnds Holidays AllOtherDays,  !- Field 55
    Until: 24:00,            !- Field 56
    0.1773;                  !- Field 57

Schedule:Compact,
    BLDG_LIGHT_GYM_SCH,      !- Name
    Fraction,                !- Schedule Type Limits Name
    Through: 6/30,           !- Field 1
    For: Weekdays,           !- Field 2
    Until: 7:00,             !- Field 3
    0.1773,                  !- Field 4
    Until: 8:00,             !- Field 5
    0.9,                     !- Field 6
    Until: 21:00,            !- Field 7
    0.88605,                 !- Field 8
    Until: 24:00,            !- Field 9
    0.1773,                  !- Field 10
    For: SummerDesignDay,    !- Field 11
    Until: 24:00,            !- Field 12
    1,                       !- Field 13
    For: WinterDesignDay,    !- Field 14
    Until: 24:00,            !- Field 15
    0,                       !- Field 16
    For: WeekEnds Holidays AllOtherDays,  !- Field 17